LTspice 24.1.4 for Windows
Circuit: C:\Users\ASUS\Documents\UIS\3.Septimo\Electrónica Industrial\Proyecto\Draft1.net
Start Time: Sat Apr  5 18:03:22 2025
solver = Normal
Maximum thread count: 8
tnom = 27
temp = 27
method = modified trap
Direct Newton iteration for .op point succeeded.
Total elapsed time: 0.787 seconds.

Files loaded:
C:\Users\ASUS\Documents\UIS\3.Septimo\Electrónica Industrial\Proyecto\Draft1.net
C:\Users\ASUS\AppData\Local\LTspice\lib\cmp\standard.dio
C:\Users\ASUS\AppData\Local\LTspice\lib\cmp\standard.mos

