Circuit: * D:\Escritorio\BUCK_LTSPICE\Draft1.asc

Direct Newton iteration for .op point succeeded.
Heightened Def Con from 4e-06 ++++++++++++++++++++to 4e-06
Heightened Def Con from 1.06667e-05 ++++++++++++++++++++to 1.06667e-05
Heightened Def Con from 1.73333e-05 ++++++++++++++++++++to 1.73333e-05
Heightened Def Con from 2.4e-05 ++++++++++++++++++++to 2.4e-05
Heightened Def Con from 3.06666e-05 ++++++++++++++++++++to 3.06666e-05
Heightened Def Con from 3.73333e-05 ++++++++++++++++++++to 3.73333e-05
Heightened Def Con from 4.4e-05 ++++++++++++++++++++to 4.4e-05
Heightened Def Con from 5.06666e-05 ++++++++++++++++++++to 5.06666e-05
Heightened Def Con from 5.73333e-05 ++++++++++++++++++++to 5.73333e-05
Heightened Def Con from 6.39999e-05 ++++++++++++++++++++to 6.39999e-05
Heightened Def Con from 7.06666e-05 ++++++++++++++++++++to 7.06666e-05
Heightened Def Con from 7.73333e-05 ++++++++++++++++++++to 7.73333e-05
Heightened Def Con from 8.39999e-05 ++++++++++++++++++++to 8.39999e-05
Heightened Def Con from 9.06666e-05 ++++++++++++++++++++to 9.06666e-05
Heightened Def Con from 9.73332e-05 ++++++++++++++++++++to 9.73332e-05
Heightened Def Con from 0.000104 ++++++++++++++++++++to 0.000104
Heightened Def Con from 0.000110667 ++++++++++++++++++++to 0.000110667
Heightened Def Con from 0.000117333 ++++++++++++++++++++to 0.000117333
Heightened Def Con from 0.000124 ++++++++++++++++++++to 0.000124
Heightened Def Con from 0.000130667 ++++++++++++++++++++to 0.000130667
Heightened Def Con from 0.000137333 ++++++++++++++++++++to 0.000137333
Heightened Def Con from 0.000144 ++++++++++++++++++++to 0.000144
Heightened Def Con from 0.000150667 ++++++++++++++++++++to 0.000150667
Heightened Def Con from 0.000157333 ++++++++++++++++++++to 0.000157333
Heightened Def Con from 0.000164 ++++++++++++++++++++to 0.000164
Heightened Def Con from 0.000170667 ++++++++++++++++++++to 0.000170667
Heightened Def Con from 0.000177333 ++++++++++++++++++++to 0.000177333
Heightened Def Con from 0.000184 ++++++++++++++++++++to 0.000184
Heightened Def Con from 0.000190666 ++++++++++++++++++++to 0.000190666
Heightened Def Con from 0.000197333 ++++++++++++++++++++to 0.000197333
Heightened Def Con from 0.000204 ++++++++++++++++++++to 0.000204
Heightened Def Con from 0.000210666 ++++++++++++++++++++to 0.000210666
Heightened Def Con from 0.000217333 ++++++++++++++++++++to 0.000217333
Heightened Def Con from 0.000224 ++++++++++++++++++++to 0.000224
Heightened Def Con from 0.000230666 ++++++++++++++++++++to 0.000230666
Heightened Def Con from 0.000237333 ++++++++++++++++++++to 0.000237333
Heightened Def Con from 0.000244 ++++++++++++++++++++to 0.000244
Heightened Def Con from 0.000250666 ++++++++++++++++++++to 0.000250666
Heightened Def Con from 0.000257333 ++++++++++++++++++++to 0.000257333
Heightened Def Con from 0.000264 ++++++++++++++++++++to 0.000264
Heightened Def Con from 0.000270666 ++++++++++++++++++++to 0.000270666
Heightened Def Con from 0.000277333 ++++++++++++++++++++to 0.000277333
Heightened Def Con from 0.000284 ++++++++++++++++++++to 0.000284
Heightened Def Con from 0.000290666 ++++++++++++++++++++to 0.000290666
Heightened Def Con from 0.000297333 ++++++++++++++++++++to 0.000297333
Heightened Def Con from 0.000304 ++++++++++++++++++++to 0.000304
Heightened Def Con from 0.000310666 ++++++++++++++++++++to 0.000310666
Heightened Def Con from 0.000317333 ++++++++++++++++++++to 0.000317333
Heightened Def Con from 0.000324 ++++++++++++++++++++to 0.000324
Heightened Def Con from 0.000330666 ++++++++++++++++++++to 0.000330666
Heightened Def Con from 0.000337333 ++++++++++++++++++++to 0.000337333
Heightened Def Con from 0.000344 ++++++++++++++++++++to 0.000344
Heightened Def Con from 0.000350666 ++++++++++++++++++++to 0.000350666
Heightened Def Con from 0.000357333 ++++++++++++++++++++to 0.000357333
Heightened Def Con from 0.000364 ++++++++++++++++++++to 0.000364
Heightened Def Con from 0.000370666 ++++++++++++++++++++to 0.000370666
Heightened Def Con from 0.000377333 ++++++++++++++++++++to 0.000377333
Heightened Def Con from 0.000384 ++++++++++++++++++++to 0.000384
Heightened Def Con from 0.000390666 ++++++++++++++++++++to 0.000390666
Heightened Def Con from 0.000397333 ++++++++++++++++++++to 0.000397333
Heightened Def Con from 0.000404 ++++++++++++++++++++to 0.000404
Heightened Def Con from 0.000410666 ++++++++++++++++++++to 0.000410666
Heightened Def Con from 0.000417333 ++++++++++++++++++++to 0.000417333
Heightened Def Con from 0.000424 ++++++++++++++++++++to 0.000424
Heightened Def Con from 0.000430666 ++++++++++++++++++++to 0.000430666
Heightened Def Con from 0.000437333 ++++++++++++++++++++to 0.000437333
Heightened Def Con from 0.000444 ++++++++++++++++++++to 0.000444
Heightened Def Con from 0.000450666 ++++++++++++++++++++to 0.000450666
Heightened Def Con from 0.000457333 ++++++++++++++++++++to 0.000457333
Heightened Def Con from 0.000464 ++++++++++++++++++++to 0.000464
Heightened Def Con from 0.000470666 ++++++++++++++++++++to 0.000470666
Heightened Def Con from 0.000477333 ++++++++++++++++++++to 0.000477333
Heightened Def Con from 0.000484 ++++++++++++++++++++to 0.000484
Heightened Def Con from 0.000490666 ++++++++++++++++++++to 0.000490666
Heightened Def Con from 0.000497333 ++++++++++++++++++++to 0.000497333
Heightened Def Con from 0.000504 ++++++++++++++++++++to 0.000504
Heightened Def Con from 0.000510666 ++++++++++++++++++++to 0.000510666
Heightened Def Con from 0.000517333 ++++++++++++++++++++to 0.000517333
Heightened Def Con from 0.000523999 ++++++++++++++++++++to 0.000523999
Heightened Def Con from 0.000530666 ++++++++++++++++++++to 0.000530666
Heightened Def Con from 0.000537333 ++++++++++++++++++++to 0.000537333
Heightened Def Con from 0.000543999 ++++++++++++++++++++to 0.000543999
Heightened Def Con from 0.000550666 ++++++++++++++++++++to 0.000550666
Heightened Def Con from 0.000557333 ++++++++++++++++++++to 0.000557333
Heightened Def Con from 0.000563999 ++++++++++++++++++++to 0.000563999
Heightened Def Con from 0.000570666 ++++++++++++++++++++to 0.000570666
Heightened Def Con from 0.000577333 ++++++++++++++++++++to 0.000577333
Heightened Def Con from 0.000583999 ++++++++++++++++++++to 0.000583999
Heightened Def Con from 0.000590666 ++++++++++++++++++++to 0.000590666
Heightened Def Con from 0.000597333 ++++++++++++++++++++to 0.000597333
Heightened Def Con from 0.000603999 ++++++++++++++++++++to 0.000603999
Heightened Def Con from 0.000610666 ++++++++++++++++++++to 0.000610666
Heightened Def Con from 0.000617333 ++++++++++++++++++++to 0.000617333
Heightened Def Con from 0.000623999 ++++++++++++++++++++to 0.000623999
Heightened Def Con from 0.000630666 ++++++++++++++++++++to 0.000630666
Heightened Def Con from 0.000637333 ++++++++++++++++++++to 0.000637333
Heightened Def Con from 0.000643999 ++++++++++++++++++++to 0.000643999
Heightened Def Con from 0.000650666 ++++++++++++++++++++to 0.000650666
Heightened Def Con from 0.000657333 ++++++++++++++++++++to 0.000657333
Heightened Def Con from 0.000663999 ++++++++++++++++++++to 0.000663999
Heightened Def Con from 0.000670666 ++++++++++++++++++++to 0.000670666
Heightened Def Con from 0.000677333 ++++++++++++++++++++to 0.000677333
Heightened Def Con from 0.000683999 ++++++++++++++++++++to 0.000683999
Heightened Def Con from 0.000690666 ++++++++++++++++++++to 0.000690666
Heightened Def Con from 0.000697333 ++++++++++++++++++++to 0.000697333
Heightened Def Con from 0.000703999 ++++++++++++++++++++to 0.000703999
Heightened Def Con from 0.000710666 ++++++++++++++++++++to 0.000710666
Heightened Def Con from 0.000717333 ++++++++++++++++++++to 0.000717333
Heightened Def Con from 0.000723999 ++++++++++++++++++++to 0.000723999
Heightened Def Con from 0.000730666 ++++++++++++++++++++to 0.000730666
Heightened Def Con from 0.000737333 ++++++++++++++++++++to 0.000737333
Heightened Def Con from 0.000743999 ++++++++++++++++++++to 0.000743999
Heightened Def Con from 0.000750666 ++++++++++++++++++++to 0.000750666
Heightened Def Con from 0.000757333 ++++++++++++++++++++to 0.000757333
Heightened Def Con from 0.000763999 ++++++++++++++++++++to 0.000763999
Heightened Def Con from 0.000770666 ++++++++++++++++++++to 0.000770666
Heightened Def Con from 0.000777333 ++++++++++++++++++++to 0.000777333
Heightened Def Con from 0.000783999 ++++++++++++++++++++to 0.000783999
Heightened Def Con from 0.000790666 ++++++++++++++++++++to 0.000790666
Heightened Def Con from 0.000797333 ++++++++++++++++++++to 0.000797333
Heightened Def Con from 0.000803999 ++++++++++++++++++++to 0.000803999
Heightened Def Con from 0.000810666 ++++++++++++++++++++to 0.000810666
Heightened Def Con from 0.000817333 ++++++++++++++++++++to 0.000817333
Heightened Def Con from 0.000823999 ++++++++++++++++++++to 0.000823999
Heightened Def Con from 0.000830666 ++++++++++++++++++++to 0.000830666
Heightened Def Con from 0.000837333 ++++++++++++++++++++to 0.000837333
Heightened Def Con from 0.000843999 ++++++++++++++++++++to 0.000843999
Heightened Def Con from 0.000850666 ++++++++++++++++++++to 0.000850666
Heightened Def Con from 0.000857332 ++++++++++++++++++++to 0.000857332
Heightened Def Con from 0.000863999 ++++++++++++++++++++to 0.000863999
Heightened Def Con from 0.000870666 ++++++++++++++++++++to 0.000870666
Heightened Def Con from 0.000877332 ++++++++++++++++++++to 0.000877332
Heightened Def Con from 0.000883999 ++++++++++++++++++++to 0.000883999
Heightened Def Con from 0.000890666 ++++++++++++++++++++to 0.000890666
Heightened Def Con from 0.000897332 ++++++++++++++++++++to 0.000897332
Heightened Def Con from 0.000903999 ++++++++++++++++++++to 0.000903999
Heightened Def Con from 0.000910666 ++++++++++++++++++++to 0.000910666
Heightened Def Con from 0.000917332 ++++++++++++++++++++to 0.000917332
Heightened Def Con from 0.000923999 ++++++++++++++++++++to 0.000923999
Heightened Def Con from 0.000930666 ++++++++++++++++++++to 0.000930666
Heightened Def Con from 0.000937332 ++++++++++++++++++++to 0.000937332
Heightened Def Con from 0.000943999 ++++++++++++++++++++to 0.000943999
Heightened Def Con from 0.000950666 ++++++++++++++++++++to 0.000950666
Heightened Def Con from 0.000957332 ++++++++++++++++++++to 0.000957332
Heightened Def Con from 0.000963999 ++++++++++++++++++++to 0.000963999
Heightened Def Con from 0.000970666 ++++++++++++++++++++to 0.000970666
Heightened Def Con from 0.000977332 ++++++++++++++++++++to 0.000977332
Heightened Def Con from 0.000983999 ++++++++++++++++++++to 0.000983999
Heightened Def Con from 0.000990666 ++++++++++++++++++++to 0.000990666
Heightened Def Con from 0.000997332 ++++++++++++++++++++to 0.000997332
Heightened Def Con from 0.001004 ++++++++++++++++++++to 0.001004
Heightened Def Con from 0.00101067 ++++++++++++++++++++to 0.00101067
Heightened Def Con from 0.00101733 ++++++++++++++++++++to 0.00101733
Heightened Def Con from 0.001024 ++++++++++++++++++++to 0.001024
Heightened Def Con from 0.00103067 ++++++++++++++++++++to 0.00103067
Heightened Def Con from 0.00103733 ++++++++++++++++++++to 0.00103733
Heightened Def Con from 0.001044 ++++++++++++++++++++to 0.001044
Heightened Def Con from 0.00105067 ++++++++++++++++++++to 0.00105067
Heightened Def Con from 0.00105733 ++++++++++++++++++++to 0.00105733
Heightened Def Con from 0.001064 ++++++++++++++++++++to 0.001064
Heightened Def Con from 0.00107067 ++++++++++++++++++++to 0.00107067
Heightened Def Con from 0.00107733 ++++++++++++++++++++to 0.00107733
Heightened Def Con from 0.001084 ++++++++++++++++++++to 0.001084
Heightened Def Con from 0.00109067 ++++++++++++++++++++to 0.00109067
Heightened Def Con from 0.00109733 ++++++++++++++++++++to 0.00109733
Heightened Def Con from 0.001104 ++++++++++++++++++++to 0.001104
Heightened Def Con from 0.00111067 ++++++++++++++++++++to 0.00111067
Heightened Def Con from 0.00111733 ++++++++++++++++++++to 0.00111733
Heightened Def Con from 0.001124 ++++++++++++++++++++to 0.001124
Heightened Def Con from 0.00113067 ++++++++++++++++++++to 0.00113067
Heightened Def Con from 0.00113733 ++++++++++++++++++++to 0.00113733
Heightened Def Con from 0.001144 ++++++++++++++++++++to 0.001144
Heightened Def Con from 0.00115067 ++++++++++++++++++++to 0.00115067
Heightened Def Con from 0.00115733 ++++++++++++++++++++to 0.00115733
Heightened Def Con from 0.001164 ++++++++++++++++++++to 0.001164
Heightened Def Con from 0.00117067 ++++++++++++++++++++to 0.00117067
Heightened Def Con from 0.00117733 ++++++++++++++++++++to 0.00117733
Heightened Def Con from 0.001184 ++++++++++++++++++++to 0.001184
Heightened Def Con from 0.00119067 ++++++++++++++++++++to 0.00119067
Heightened Def Con from 0.00119733 ++++++++++++++++++++to 0.00119733
Heightened Def Con from 0.001204 ++++++++++++++++++++to 0.001204
Heightened Def Con from 0.00121067 ++++++++++++++++++++to 0.00121067
Heightened Def Con from 0.00121733 ++++++++++++++++++++to 0.00121733
Heightened Def Con from 0.001224 ++++++++++++++++++++to 0.001224
Heightened Def Con from 0.00123067 ++++++++++++++++++++to 0.00123067
Heightened Def Con from 0.00123733 ++++++++++++++++++++to 0.00123733
Heightened Def Con from 0.001244 ++++++++++++++++++++to 0.001244
Heightened Def Con from 0.00125067 ++++++++++++++++++++to 0.00125067
Heightened Def Con from 0.00125733 ++++++++++++++++++++to 0.00125733
Heightened Def Con from 0.001264 ++++++++++++++++++++to 0.001264
Heightened Def Con from 0.00127067 ++++++++++++++++++++to 0.00127067
Heightened Def Con from 0.00127733 ++++++++++++++++++++to 0.00127733
Heightened Def Con from 0.001284 ++++++++++++++++++++to 0.001284
Heightened Def Con from 0.00129067 ++++++++++++++++++++to 0.00129067
Heightened Def Con from 0.00129733 ++++++++++++++++++++to 0.00129733
Heightened Def Con from 0.001304 ++++++++++++++++++++to 0.001304
Heightened Def Con from 0.00131067 ++++++++++++++++++++to 0.00131067
Heightened Def Con from 0.00131733 ++++++++++++++++++++to 0.00131733
Heightened Def Con from 0.001324 ++++++++++++++++++++to 0.001324
Heightened Def Con from 0.00133067 ++++++++++++++++++++to 0.00133067
Heightened Def Con from 0.00133733 ++++++++++++++++++++to 0.00133733
Heightened Def Con from 0.001344 ++++++++++++++++++++to 0.001344
Heightened Def Con from 0.00135067 ++++++++++++++++++++to 0.00135067
Heightened Def Con from 0.00135733 ++++++++++++++++++++to 0.00135733
Heightened Def Con from 0.001364 ++++++++++++++++++++to 0.001364
Heightened Def Con from 0.00137067 ++++++++++++++++++++to 0.00137067
Heightened Def Con from 0.00137733 ++++++++++++++++++++to 0.00137733
Heightened Def Con from 0.001384 ++++++++++++++++++++to 0.001384
Heightened Def Con from 0.00139067 ++++++++++++++++++++to 0.00139067
Heightened Def Con from 0.00139733 ++++++++++++++++++++to 0.00139733
Heightened Def Con from 0.001404 ++++++++++++++++++++to 0.001404
Heightened Def Con from 0.00141067 ++++++++++++++++++++to 0.00141067
Heightened Def Con from 0.00141733 ++++++++++++++++++++to 0.00141733
Heightened Def Con from 0.001424 ++++++++++++++++++++to 0.001424
Heightened Def Con from 0.00143067 ++++++++++++++++++++to 0.00143067
Heightened Def Con from 0.00143733 ++++++++++++++++++++to 0.00143733
Heightened Def Con from 0.001444 ++++++++++++++++++++to 0.001444
Heightened Def Con from 0.00145067 ++++++++++++++++++++to 0.00145067
Heightened Def Con from 0.00145733 ++++++++++++++++++++to 0.00145733
Heightened Def Con from 0.001464 ++++++++++++++++++++to 0.001464
Heightened Def Con from 0.00147067 ++++++++++++++++++++to 0.00147067
Heightened Def Con from 0.00147733 ++++++++++++++++++++to 0.00147733
Heightened Def Con from 0.001484 ++++++++++++++++++++to 0.001484
Heightened Def Con from 0.00149067 ++++++++++++++++++++to 0.00149067
Heightened Def Con from 0.00149733 ++++++++++++++++++++to 0.00149733
Heightened Def Con from 0.001504 ++++++++++++++++++++to 0.001504
Heightened Def Con from 0.00151067 ++++++++++++++++++++to 0.00151067
Heightened Def Con from 0.00151733 ++++++++++++++++++++to 0.00151733
Heightened Def Con from 0.001524 ++++++++++++++++++++to 0.001524
Heightened Def Con from 0.00153067 ++++++++++++++++++++to 0.00153067
Heightened Def Con from 0.00153733 ++++++++++++++++++++to 0.00153733
Heightened Def Con from 0.001544 ++++++++++++++++++++to 0.001544
Heightened Def Con from 0.00155067 ++++++++++++++++++++to 0.00155067
Heightened Def Con from 0.00155733 ++++++++++++++++++++to 0.00155733
Heightened Def Con from 0.001564 ++++++++++++++++++++to 0.001564
Heightened Def Con from 0.00157067 ++++++++++++++++++++to 0.00157067
Heightened Def Con from 0.00157733 ++++++++++++++++++++to 0.00157733
Heightened Def Con from 0.001584 ++++++++++++++++++++to 0.001584
Heightened Def Con from 0.00159067 ++++++++++++++++++++to 0.00159067
Heightened Def Con from 0.00159733 ++++++++++++++++++++to 0.00159733
Heightened Def Con from 0.001604 ++++++++++++++++++++to 0.001604
Heightened Def Con from 0.00161067 ++++++++++++++++++++to 0.00161067
Heightened Def Con from 0.00161733 ++++++++++++++++++++to 0.00161733
Heightened Def Con from 0.001624 ++++++++++++++++++++to 0.001624
Heightened Def Con from 0.00163067 ++++++++++++++++++++to 0.00163067
Heightened Def Con from 0.00163733 ++++++++++++++++++++to 0.00163733
Heightened Def Con from 0.001644 ++++++++++++++++++++to 0.001644
Heightened Def Con from 0.00165067 ++++++++++++++++++++to 0.00165067
Heightened Def Con from 0.00165733 ++++++++++++++++++++to 0.00165733
Heightened Def Con from 0.001664 ++++++++++++++++++++to 0.001664
Heightened Def Con from 0.00167067 ++++++++++++++++++++to 0.00167067
Heightened Def Con from 0.00167733 ++++++++++++++++++++to 0.00167733
Heightened Def Con from 0.001684 ++++++++++++++++++++to 0.001684
Heightened Def Con from 0.00169066 ++++++++++++++++++++to 0.00169066
Heightened Def Con from 0.00169733 ++++++++++++++++++++to 0.00169733
Heightened Def Con from 0.001704 ++++++++++++++++++++to 0.001704
Heightened Def Con from 0.00171066 ++++++++++++++++++++to 0.00171066
Heightened Def Con from 0.00171733 ++++++++++++++++++++to 0.00171733
Heightened Def Con from 0.001724 ++++++++++++++++++++to 0.001724
Heightened Def Con from 0.00173066 ++++++++++++++++++++to 0.00173066
Heightened Def Con from 0.00173733 ++++++++++++++++++++to 0.00173733
Heightened Def Con from 0.001744 ++++++++++++++++++++to 0.001744
Heightened Def Con from 0.00175066 ++++++++++++++++++++to 0.00175066
Heightened Def Con from 0.00175733 ++++++++++++++++++++to 0.00175733
Heightened Def Con from 0.001764 ++++++++++++++++++++to 0.001764
Heightened Def Con from 0.00177066 ++++++++++++++++++++to 0.00177066
Heightened Def Con from 0.00177733 ++++++++++++++++++++to 0.00177733
Heightened Def Con from 0.001784 ++++++++++++++++++++to 0.001784
Heightened Def Con from 0.00179066 ++++++++++++++++++++to 0.00179066
Heightened Def Con from 0.00179733 ++++++++++++++++++++to 0.00179733
Heightened Def Con from 0.001804 ++++++++++++++++++++to 0.001804
Heightened Def Con from 0.00181066 ++++++++++++++++++++to 0.00181066
Heightened Def Con from 0.00181733 ++++++++++++++++++++to 0.00181733
Heightened Def Con from 0.001824 ++++++++++++++++++++to 0.001824
Heightened Def Con from 0.00183066 ++++++++++++++++++++to 0.00183066
Heightened Def Con from 0.00183733 ++++++++++++++++++++to 0.00183733
Heightened Def Con from 0.001844 ++++++++++++++++++++to 0.001844
Heightened Def Con from 0.00185066 ++++++++++++++++++++to 0.00185066
Heightened Def Con from 0.00185733 ++++++++++++++++++++to 0.00185733
Heightened Def Con from 0.001864 ++++++++++++++++++++to 0.001864
Heightened Def Con from 0.00187066 ++++++++++++++++++++to 0.00187066
Heightened Def Con from 0.00187733 ++++++++++++++++++++to 0.00187733
Heightened Def Con from 0.001884 ++++++++++++++++++++to 0.001884
Heightened Def Con from 0.00189066 ++++++++++++++++++++to 0.00189066
Heightened Def Con from 0.00189733 ++++++++++++++++++++to 0.00189733
Heightened Def Con from 0.001904 ++++++++++++++++++++to 0.001904
Heightened Def Con from 0.00191066 ++++++++++++++++++++to 0.00191066
Heightened Def Con from 0.00191733 ++++++++++++++++++++to 0.00191733
Heightened Def Con from 0.001924 ++++++++++++++++++++to 0.001924
Heightened Def Con from 0.00193066 ++++++++++++++++++++to 0.00193066
Heightened Def Con from 0.00193733 ++++++++++++++++++++to 0.00193733
Heightened Def Con from 0.001944 ++++++++++++++++++++to 0.001944
Heightened Def Con from 0.00195066 ++++++++++++++++++++to 0.00195066
Heightened Def Con from 0.00195733 ++++++++++++++++++++to 0.00195733
Heightened Def Con from 0.001964 ++++++++++++++++++++to 0.001964
Heightened Def Con from 0.00197066 ++++++++++++++++++++to 0.00197066
Heightened Def Con from 0.00197733 ++++++++++++++++++++to 0.00197733
Heightened Def Con from 0.001984 ++++++++++++++++++++to 0.001984
Heightened Def Con from 0.00199066 ++++++++++++++++++++to 0.00199066
Heightened Def Con from 0.00199733 ++++++++++++++++++++to 0.00199733
Heightened Def Con from 0.002004 ++++++++++++++++++++to 0.002004
Heightened Def Con from 0.00201066 ++++++++++++++++++++to 0.00201066
Heightened Def Con from 0.00201733 ++++++++++++++++++++to 0.00201733
Heightened Def Con from 0.002024 ++++++++++++++++++++to 0.002024
Heightened Def Con from 0.00203066 ++++++++++++++++++++to 0.00203066
Heightened Def Con from 0.00203733 ++++++++++++++++++++to 0.00203733
Heightened Def Con from 0.002044 ++++++++++++++++++++to 0.002044
Heightened Def Con from 0.00205066 ++++++++++++++++++++to 0.00205066
Heightened Def Con from 0.00205733 ++++++++++++++++++++to 0.00205733
Heightened Def Con from 0.002064 ++++++++++++++++++++to 0.002064
Heightened Def Con from 0.00207066 ++++++++++++++++++++to 0.00207066
Heightened Def Con from 0.00207733 ++++++++++++++++++++to 0.00207733
Heightened Def Con from 0.002084 ++++++++++++++++++++to 0.002084
Heightened Def Con from 0.00209066 ++++++++++++++++++++to 0.00209066
Heightened Def Con from 0.00209733 ++++++++++++++++++++to 0.00209733
Heightened Def Con from 0.002104 ++++++++++++++++++++to 0.002104
Heightened Def Con from 0.00211066 ++++++++++++++++++++to 0.00211066
Heightened Def Con from 0.00211733 ++++++++++++++++++++to 0.00211733
Heightened Def Con from 0.002124 ++++++++++++++++++++to 0.002124
Heightened Def Con from 0.00213066 ++++++++++++++++++++to 0.00213066
Heightened Def Con from 0.00213733 ++++++++++++++++++++to 0.00213733
Heightened Def Con from 0.002144 ++++++++++++++++++++to 0.002144
Heightened Def Con from 0.00215066 ++++++++++++++++++++to 0.00215066
Heightened Def Con from 0.00215733 ++++++++++++++++++++to 0.00215733
Heightened Def Con from 0.002164 ++++++++++++++++++++to 0.002164
Heightened Def Con from 0.00217066 ++++++++++++++++++++to 0.00217066
Heightened Def Con from 0.00217733 ++++++++++++++++++++to 0.00217733
Heightened Def Con from 0.002184 ++++++++++++++++++++to 0.002184
Heightened Def Con from 0.00219066 ++++++++++++++++++++to 0.00219066
Heightened Def Con from 0.00219733 ++++++++++++++++++++to 0.00219733
Heightened Def Con from 0.002204 ++++++++++++++++++++to 0.002204
Heightened Def Con from 0.00221066 ++++++++++++++++++++to 0.00221066
Heightened Def Con from 0.00221733 ++++++++++++++++++++to 0.00221733
Heightened Def Con from 0.002224 ++++++++++++++++++++to 0.002224
Heightened Def Con from 0.00223066 ++++++++++++++++++++to 0.00223066
Heightened Def Con from 0.00223733 ++++++++++++++++++++to 0.00223733
Heightened Def Con from 0.002244 ++++++++++++++++++++to 0.002244
Heightened Def Con from 0.00225066 ++++++++++++++++++++to 0.00225066
Heightened Def Con from 0.00225733 ++++++++++++++++++++to 0.00225733
Heightened Def Con from 0.002264 ++++++++++++++++++++to 0.002264
Heightened Def Con from 0.00227066 ++++++++++++++++++++to 0.00227066
Heightened Def Con from 0.00227733 ++++++++++++++++++++to 0.00227733
Heightened Def Con from 0.002284 ++++++++++++++++++++to 0.002284
Heightened Def Con from 0.00229066 ++++++++++++++++++++to 0.00229066
Heightened Def Con from 0.00229733 ++++++++++++++++++++to 0.00229733
Heightened Def Con from 0.002304 ++++++++++++++++++++to 0.002304
Heightened Def Con from 0.00231066 ++++++++++++++++++++to 0.00231066
Heightened Def Con from 0.00231733 ++++++++++++++++++++to 0.00231733
Heightened Def Con from 0.002324 ++++++++++++++++++++to 0.002324
Heightened Def Con from 0.00233066 ++++++++++++++++++++to 0.00233066
Heightened Def Con from 0.00233733 ++++++++++++++++++++to 0.00233733
Heightened Def Con from 0.002344 ++++++++++++++++++++to 0.002344
Heightened Def Con from 0.00235066 ++++++++++++++++++++to 0.00235066
Heightened Def Con from 0.00235733 ++++++++++++++++++++to 0.00235733
Heightened Def Con from 0.002364 ++++++++++++++++++++to 0.002364
Heightened Def Con from 0.00237066 ++++++++++++++++++++to 0.00237066
Heightened Def Con from 0.00237733 ++++++++++++++++++++to 0.00237733
Heightened Def Con from 0.002384 ++++++++++++++++++++to 0.002384
Heightened Def Con from 0.00239066 ++++++++++++++++++++to 0.00239066
Heightened Def Con from 0.00239733 ++++++++++++++++++++to 0.00239733
Heightened Def Con from 0.002404 ++++++++++++++++++++to 0.002404
Heightened Def Con from 0.00241066 ++++++++++++++++++++to 0.00241066
Heightened Def Con from 0.00241733 ++++++++++++++++++++to 0.00241733
Heightened Def Con from 0.002424 ++++++++++++++++++++to 0.002424
Heightened Def Con from 0.00243066 ++++++++++++++++++++to 0.00243066
Heightened Def Con from 0.00243733 ++++++++++++++++++++to 0.00243733
Heightened Def Con from 0.002444 ++++++++++++++++++++to 0.002444
Heightened Def Con from 0.00245066 ++++++++++++++++++++to 0.00245066
Heightened Def Con from 0.00245733 ++++++++++++++++++++to 0.00245733
Heightened Def Con from 0.002464 ++++++++++++++++++++to 0.002464
Heightened Def Con from 0.00247066 ++++++++++++++++++++to 0.00247066
Heightened Def Con from 0.00247733 ++++++++++++++++++++to 0.00247733
Heightened Def Con from 0.002484 ++++++++++++++++++++to 0.002484
Heightened Def Con from 0.00249066 ++++++++++++++++++++to 0.00249066
Heightened Def Con from 0.00249733 ++++++++++++++++++++to 0.00249733
Heightened Def Con from 0.002504 ++++++++++++++++++++to 0.002504
Heightened Def Con from 0.00251066 ++++++++++++++++++++to 0.00251066
Heightened Def Con from 0.00251733 ++++++++++++++++++++to 0.00251733
Heightened Def Con from 0.002524 ++++++++++++++++++++to 0.002524
Heightened Def Con from 0.00253066 ++++++++++++++++++++to 0.00253066
Heightened Def Con from 0.00253733 ++++++++++++++++++++to 0.00253733
Heightened Def Con from 0.002544 ++++++++++++++++++++to 0.002544
Heightened Def Con from 0.00255066 ++++++++++++++++++++to 0.00255066
Heightened Def Con from 0.00255733 ++++++++++++++++++++to 0.00255733
Heightened Def Con from 0.002564 ++++++++++++++++++++to 0.002564
Heightened Def Con from 0.00257066 ++++++++++++++++++++to 0.00257066
Heightened Def Con from 0.00257733 ++++++++++++++++++++to 0.00257733
Heightened Def Con from 0.002584 ++++++++++++++++++++to 0.002584
Heightened Def Con from 0.00259066 ++++++++++++++++++++to 0.00259066
Heightened Def Con from 0.00259733 ++++++++++++++++++++to 0.00259733
Heightened Def Con from 0.002604 ++++++++++++++++++++to 0.002604
Heightened Def Con from 0.00261066 ++++++++++++++++++++to 0.00261066
Heightened Def Con from 0.00261733 ++++++++++++++++++++to 0.00261733
Heightened Def Con from 0.002624 ++++++++++++++++++++to 0.002624
Heightened Def Con from 0.00263066 ++++++++++++++++++++to 0.00263066
Heightened Def Con from 0.00263733 ++++++++++++++++++++to 0.00263733
Heightened Def Con from 0.002644 ++++++++++++++++++++to 0.002644
Heightened Def Con from 0.00265066 ++++++++++++++++++++to 0.00265066
Heightened Def Con from 0.00265733 ++++++++++++++++++++to 0.00265733
Heightened Def Con from 0.002664 ++++++++++++++++++++to 0.002664
Heightened Def Con from 0.00267066 ++++++++++++++++++++to 0.00267066
Heightened Def Con from 0.00267733 ++++++++++++++++++++to 0.00267733
Heightened Def Con from 0.002684 ++++++++++++++++++++to 0.002684
Heightened Def Con from 0.00269066 ++++++++++++++++++++to 0.00269066
Heightened Def Con from 0.00269733 ++++++++++++++++++++to 0.00269733
Heightened Def Con from 0.002704 ++++++++++++++++++++to 0.002704
Heightened Def Con from 0.00271066 ++++++++++++++++++++to 0.00271066
Heightened Def Con from 0.00271733 ++++++++++++++++++++to 0.00271733
Heightened Def Con from 0.002724 ++++++++++++++++++++to 0.002724
Heightened Def Con from 0.00273066 ++++++++++++++++++++to 0.00273066
Heightened Def Con from 0.00273733 ++++++++++++++++++++to 0.00273733
Heightened Def Con from 0.002744 ++++++++++++++++++++to 0.002744
Heightened Def Con from 0.00275066 ++++++++++++++++++++to 0.00275066
Heightened Def Con from 0.00275733 ++++++++++++++++++++to 0.00275733
Heightened Def Con from 0.002764 ++++++++++++++++++++to 0.002764
Heightened Def Con from 0.00277066 ++++++++++++++++++++to 0.00277066
Heightened Def Con from 0.00277733 ++++++++++++++++++++to 0.00277733
Heightened Def Con from 0.002784 ++++++++++++++++++++to 0.002784
Heightened Def Con from 0.00279066 ++++++++++++++++++++to 0.00279066
Heightened Def Con from 0.00279733 ++++++++++++++++++++to 0.00279733
Heightened Def Con from 0.002804 ++++++++++++++++++++to 0.002804
Heightened Def Con from 0.00281066 ++++++++++++++++++++to 0.00281066
Heightened Def Con from 0.00281733 ++++++++++++++++++++to 0.00281733
Heightened Def Con from 0.002824 ++++++++++++++++++++to 0.002824
Heightened Def Con from 0.00283066 ++++++++++++++++++++to 0.00283066
Heightened Def Con from 0.00283733 ++++++++++++++++++++to 0.00283733
Heightened Def Con from 0.002844 ++++++++++++++++++++to 0.002844
Heightened Def Con from 0.00285066 ++++++++++++++++++++to 0.00285066
Heightened Def Con from 0.00285733 ++++++++++++++++++++to 0.00285733
Heightened Def Con from 0.002864 ++++++++++++++++++++to 0.002864
Heightened Def Con from 0.00287066 ++++++++++++++++++++to 0.00287066
Heightened Def Con from 0.00287733 ++++++++++++++++++++to 0.00287733
Heightened Def Con from 0.002884 ++++++++++++++++++++to 0.002884
Heightened Def Con from 0.00289066 ++++++++++++++++++++to 0.00289066
Heightened Def Con from 0.00289733 ++++++++++++++++++++to 0.00289733
Heightened Def Con from 0.002904 ++++++++++++++++++++to 0.002904
Heightened Def Con from 0.00291066 ++++++++++++++++++++to 0.00291066
Heightened Def Con from 0.00291733 ++++++++++++++++++++to 0.00291733
Heightened Def Con from 0.002924 ++++++++++++++++++++to 0.002924
Heightened Def Con from 0.00293066 ++++++++++++++++++++to 0.00293066
Heightened Def Con from 0.00293733 ++++++++++++++++++++to 0.00293733
Heightened Def Con from 0.002944 ++++++++++++++++++++to 0.002944
Heightened Def Con from 0.00295066 ++++++++++++++++++++to 0.00295066
Heightened Def Con from 0.00295733 ++++++++++++++++++++to 0.00295733
Heightened Def Con from 0.002964 ++++++++++++++++++++to 0.002964
Heightened Def Con from 0.00297066 ++++++++++++++++++++to 0.00297066
Heightened Def Con from 0.00297733 ++++++++++++++++++++to 0.00297733
Heightened Def Con from 0.002984 ++++++++++++++++++++to 0.002984
Heightened Def Con from 0.00299066 ++++++++++++++++++++to 0.00299066
Heightened Def Con from 0.00299733 ++++++++++++++++++++to 0.00299733
Heightened Def Con from 0.003004 ++++++++++++++++++++to 0.003004
Heightened Def Con from 0.00301066 ++++++++++++++++++++to 0.00301066
Heightened Def Con from 0.00301733 ++++++++++++++++++++to 0.00301733
Heightened Def Con from 0.003024 ++++++++++++++++++++to 0.003024
Heightened Def Con from 0.00303066 ++++++++++++++++++++to 0.00303066
Heightened Def Con from 0.00303733 ++++++++++++++++++++to 0.00303733
Heightened Def Con from 0.003044 ++++++++++++++++++++to 0.003044
Heightened Def Con from 0.00305066 ++++++++++++++++++++to 0.00305066
Heightened Def Con from 0.00305733 ++++++++++++++++++++to 0.00305733
Heightened Def Con from 0.003064 ++++++++++++++++++++to 0.003064
Heightened Def Con from 0.00307066 ++++++++++++++++++++to 0.00307066
Heightened Def Con from 0.00307733 ++++++++++++++++++++to 0.00307733
Heightened Def Con from 0.003084 ++++++++++++++++++++to 0.003084
Heightened Def Con from 0.00309066 ++++++++++++++++++++to 0.00309066
Heightened Def Con from 0.00309733 ++++++++++++++++++++to 0.00309733
Heightened Def Con from 0.003104 ++++++++++++++++++++to 0.003104
Heightened Def Con from 0.00311066 ++++++++++++++++++++to 0.00311066
Heightened Def Con from 0.00311733 ++++++++++++++++++++to 0.00311733
Heightened Def Con from 0.003124 ++++++++++++++++++++to 0.003124
Heightened Def Con from 0.00313066 ++++++++++++++++++++to 0.00313066
Heightened Def Con from 0.00313733 ++++++++++++++++++++to 0.00313733
Heightened Def Con from 0.003144 ++++++++++++++++++++to 0.003144
Heightened Def Con from 0.00315066 ++++++++++++++++++++to 0.00315066
Heightened Def Con from 0.00315733 ++++++++++++++++++++to 0.00315733
Heightened Def Con from 0.003164 ++++++++++++++++++++to 0.003164
Heightened Def Con from 0.00317066 ++++++++++++++++++++to 0.00317066
Heightened Def Con from 0.00317733 ++++++++++++++++++++to 0.00317733
Heightened Def Con from 0.003184 ++++++++++++++++++++to 0.003184
Heightened Def Con from 0.00319066 ++++++++++++++++++++to 0.00319066
Heightened Def Con from 0.00319733 ++++++++++++++++++++to 0.00319733
Heightened Def Con from 0.003204 ++++++++++++++++++++to 0.003204
Heightened Def Con from 0.00321066 ++++++++++++++++++++to 0.00321066
Heightened Def Con from 0.00321733 ++++++++++++++++++++to 0.00321733
Heightened Def Con from 0.003224 ++++++++++++++++++++to 0.003224
Heightened Def Con from 0.00323066 ++++++++++++++++++++to 0.00323066
Heightened Def Con from 0.00323733 ++++++++++++++++++++to 0.00323733
Heightened Def Con from 0.003244 ++++++++++++++++++++to 0.003244
Heightened Def Con from 0.00325066 ++++++++++++++++++++to 0.00325066
Heightened Def Con from 0.00325733 ++++++++++++++++++++to 0.00325733
Heightened Def Con from 0.003264 ++++++++++++++++++++to 0.003264
Heightened Def Con from 0.00327066 ++++++++++++++++++++to 0.00327066
Heightened Def Con from 0.00327733 ++++++++++++++++++++to 0.00327733
Heightened Def Con from 0.003284 ++++++++++++++++++++to 0.003284
Heightened Def Con from 0.00329066 ++++++++++++++++++++to 0.00329066
Heightened Def Con from 0.00329733 ++++++++++++++++++++to 0.00329733
Heightened Def Con from 0.003304 ++++++++++++++++++++to 0.003304
Heightened Def Con from 0.00331066 ++++++++++++++++++++to 0.00331066
Heightened Def Con from 0.00331733 ++++++++++++++++++++to 0.00331733
Heightened Def Con from 0.003324 ++++++++++++++++++++to 0.003324
Heightened Def Con from 0.00333066 ++++++++++++++++++++to 0.00333066
Heightened Def Con from 0.00333733 ++++++++++++++++++++to 0.00333733
Heightened Def Con from 0.003344 ++++++++++++++++++++to 0.003344
Heightened Def Con from 0.00335066 ++++++++++++++++++++to 0.00335066
Heightened Def Con from 0.00335733 ++++++++++++++++++++to 0.00335733
Heightened Def Con from 0.003364 ++++++++++++++++++++to 0.003364
Heightened Def Con from 0.00337066 ++++++++++++++++++++to 0.00337066
Heightened Def Con from 0.00337733 ++++++++++++++++++++to 0.00337733
Heightened Def Con from 0.003384 ++++++++++++++++++++to 0.003384
Heightened Def Con from 0.00339066 ++++++++++++++++++++to 0.00339066
Heightened Def Con from 0.00339733 ++++++++++++++++++++to 0.00339733
Heightened Def Con from 0.003404 ++++++++++++++++++++to 0.003404
Heightened Def Con from 0.00341066 ++++++++++++++++++++to 0.00341066
Heightened Def Con from 0.00341733 ++++++++++++++++++++to 0.00341733
Heightened Def Con from 0.003424 ++++++++++++++++++++to 0.003424
Heightened Def Con from 0.00343066 ++++++++++++++++++++to 0.00343066
Heightened Def Con from 0.00343733 ++++++++++++++++++++to 0.00343733
Heightened Def Con from 0.003444 ++++++++++++++++++++to 0.003444
Heightened Def Con from 0.00345066 ++++++++++++++++++++to 0.00345066
Heightened Def Con from 0.00345733 ++++++++++++++++++++to 0.00345733
Heightened Def Con from 0.003464 ++++++++++++++++++++to 0.003464
Heightened Def Con from 0.00347066 ++++++++++++++++++++to 0.00347066
Heightened Def Con from 0.00347733 ++++++++++++++++++++to 0.00347733
Heightened Def Con from 0.003484 ++++++++++++++++++++to 0.003484
Heightened Def Con from 0.00349066 ++++++++++++++++++++to 0.00349066
Heightened Def Con from 0.00349733 ++++++++++++++++++++to 0.00349733
Heightened Def Con from 0.003504 ++++++++++++++++++++to 0.003504
Heightened Def Con from 0.00351066 ++++++++++++++++++++to 0.00351066
Heightened Def Con from 0.00351733 ++++++++++++++++++++to 0.00351733
Heightened Def Con from 0.003524 ++++++++++++++++++++to 0.003524
Heightened Def Con from 0.00353066 ++++++++++++++++++++to 0.00353066
Heightened Def Con from 0.00353733 ++++++++++++++++++++to 0.00353733
Heightened Def Con from 0.003544 ++++++++++++++++++++to 0.003544
Heightened Def Con from 0.00355066 ++++++++++++++++++++to 0.00355066
Heightened Def Con from 0.00355733 ++++++++++++++++++++to 0.00355733
Heightened Def Con from 0.003564 ++++++++++++++++++++to 0.003564
Heightened Def Con from 0.00357066 ++++++++++++++++++++to 0.00357066
Heightened Def Con from 0.00357733 ++++++++++++++++++++to 0.00357733
Heightened Def Con from 0.003584 ++++++++++++++++++++to 0.003584
Heightened Def Con from 0.00359066 ++++++++++++++++++++to 0.00359066
Heightened Def Con from 0.00359733 ++++++++++++++++++++to 0.00359733
Heightened Def Con from 0.003604 ++++++++++++++++++++to 0.003604
Heightened Def Con from 0.00361066 ++++++++++++++++++++to 0.00361066
Heightened Def Con from 0.00361733 ++++++++++++++++++++to 0.00361733
Heightened Def Con from 0.003624 ++++++++++++++++++++to 0.003624
Heightened Def Con from 0.00363066 ++++++++++++++++++++to 0.00363066
Heightened Def Con from 0.00363733 ++++++++++++++++++++to 0.00363733
Heightened Def Con from 0.003644 ++++++++++++++++++++to 0.003644
Heightened Def Con from 0.00365066 ++++++++++++++++++++to 0.00365066
Heightened Def Con from 0.00365733 ++++++++++++++++++++to 0.00365733
Heightened Def Con from 0.003664 ++++++++++++++++++++to 0.003664
Heightened Def Con from 0.00367066 ++++++++++++++++++++to 0.00367066
Heightened Def Con from 0.00367733 ++++++++++++++++++++to 0.00367733
Heightened Def Con from 0.003684 ++++++++++++++++++++to 0.003684
Heightened Def Con from 0.00369066 ++++++++++++++++++++to 0.00369066
Heightened Def Con from 0.00369733 ++++++++++++++++++++to 0.00369733
Heightened Def Con from 0.003704 ++++++++++++++++++++to 0.003704
Heightened Def Con from 0.00371066 ++++++++++++++++++++to 0.00371066
Heightened Def Con from 0.00371733 ++++++++++++++++++++to 0.00371733
Heightened Def Con from 0.003724 ++++++++++++++++++++to 0.003724
Heightened Def Con from 0.00373066 ++++++++++++++++++++to 0.00373066
Heightened Def Con from 0.00373733 ++++++++++++++++++++to 0.00373733
Heightened Def Con from 0.003744 ++++++++++++++++++++to 0.003744
Heightened Def Con from 0.00375066 ++++++++++++++++++++to 0.00375066
Heightened Def Con from 0.00375733 ++++++++++++++++++++to 0.00375733
Heightened Def Con from 0.003764 ++++++++++++++++++++to 0.003764
Heightened Def Con from 0.00377066 ++++++++++++++++++++to 0.00377066
Heightened Def Con from 0.00377733 ++++++++++++++++++++to 0.00377733
Heightened Def Con from 0.003784 ++++++++++++++++++++to 0.003784
Heightened Def Con from 0.00379066 ++++++++++++++++++++to 0.00379066
Heightened Def Con from 0.00379733 ++++++++++++++++++++to 0.00379733
Heightened Def Con from 0.003804 ++++++++++++++++++++to 0.003804
Heightened Def Con from 0.00381066 ++++++++++++++++++++to 0.00381066
Heightened Def Con from 0.00381733 ++++++++++++++++++++to 0.00381733
Heightened Def Con from 0.003824 ++++++++++++++++++++to 0.003824
Heightened Def Con from 0.00383066 ++++++++++++++++++++to 0.00383066
Heightened Def Con from 0.00383733 ++++++++++++++++++++to 0.00383733
Heightened Def Con from 0.003844 ++++++++++++++++++++to 0.003844
Heightened Def Con from 0.00385066 ++++++++++++++++++++to 0.00385066
Heightened Def Con from 0.00385733 ++++++++++++++++++++to 0.00385733
Heightened Def Con from 0.003864 ++++++++++++++++++++to 0.003864
Heightened Def Con from 0.00387066 ++++++++++++++++++++to 0.00387066
Heightened Def Con from 0.00387733 ++++++++++++++++++++to 0.00387733
Heightened Def Con from 0.003884 ++++++++++++++++++++to 0.003884
Heightened Def Con from 0.00389066 ++++++++++++++++++++to 0.00389066
Heightened Def Con from 0.00389733 ++++++++++++++++++++to 0.00389733
Heightened Def Con from 0.003904 ++++++++++++++++++++to 0.003904
Heightened Def Con from 0.00391066 ++++++++++++++++++++to 0.00391066
Heightened Def Con from 0.00391733 ++++++++++++++++++++to 0.00391733
Heightened Def Con from 0.003924 ++++++++++++++++++++to 0.003924
Heightened Def Con from 0.00393066 ++++++++++++++++++++to 0.00393066
Heightened Def Con from 0.00393733 ++++++++++++++++++++to 0.00393733
Heightened Def Con from 0.003944 ++++++++++++++++++++to 0.003944
Heightened Def Con from 0.00395066 ++++++++++++++++++++to 0.00395066
Heightened Def Con from 0.00395733 ++++++++++++++++++++to 0.00395733
Heightened Def Con from 0.003964 ++++++++++++++++++++to 0.003964
Heightened Def Con from 0.00397066 ++++++++++++++++++++to 0.00397066
Heightened Def Con from 0.00397733 ++++++++++++++++++++to 0.00397733
Heightened Def Con from 0.003984 ++++++++++++++++++++to 0.003984
Heightened Def Con from 0.00399066 ++++++++++++++++++++to 0.00399066
Heightened Def Con from 0.00399733 ++++++++++++++++++++to 0.00399733
Heightened Def Con from 0.004004 ++++++++++++++++++++to 0.004004
Heightened Def Con from 0.00401066 ++++++++++++++++++++to 0.00401066
Heightened Def Con from 0.00401733 ++++++++++++++++++++to 0.00401733
Heightened Def Con from 0.004024 ++++++++++++++++++++to 0.004024
Heightened Def Con from 0.00403066 ++++++++++++++++++++to 0.00403066
Heightened Def Con from 0.00403733 ++++++++++++++++++++to 0.00403733
Heightened Def Con from 0.004044 ++++++++++++++++++++to 0.004044
Heightened Def Con from 0.00405066 ++++++++++++++++++++to 0.00405066
Heightened Def Con from 0.00405733 ++++++++++++++++++++to 0.00405733
Heightened Def Con from 0.004064 ++++++++++++++++++++to 0.004064
Heightened Def Con from 0.00407066 ++++++++++++++++++++to 0.00407066
Heightened Def Con from 0.00407733 ++++++++++++++++++++to 0.00407733
Heightened Def Con from 0.004084 ++++++++++++++++++++to 0.004084
Heightened Def Con from 0.00409066 ++++++++++++++++++++to 0.00409066
Heightened Def Con from 0.00409733 ++++++++++++++++++++to 0.00409733
Heightened Def Con from 0.004104 ++++++++++++++++++++to 0.004104
Heightened Def Con from 0.00411066 ++++++++++++++++++++to 0.00411066
Heightened Def Con from 0.00411733 ++++++++++++++++++++to 0.00411733
Heightened Def Con from 0.004124 ++++++++++++++++++++to 0.004124
Heightened Def Con from 0.00413066 ++++++++++++++++++++to 0.00413066
Heightened Def Con from 0.00413733 ++++++++++++++++++++to 0.00413733
Heightened Def Con from 0.004144 ++++++++++++++++++++to 0.004144
Heightened Def Con from 0.00415066 ++++++++++++++++++++to 0.00415066
Heightened Def Con from 0.00415733 ++++++++++++++++++++to 0.00415733
Heightened Def Con from 0.004164 ++++++++++++++++++++to 0.004164
Heightened Def Con from 0.00417066 ++++++++++++++++++++to 0.00417066
Heightened Def Con from 0.00417733 ++++++++++++++++++++to 0.00417733
Heightened Def Con from 0.004184 ++++++++++++++++++++to 0.004184
Heightened Def Con from 0.00419066 ++++++++++++++++++++to 0.00419066
Heightened Def Con from 0.00419733 ++++++++++++++++++++to 0.00419733
Heightened Def Con from 0.004204 ++++++++++++++++++++to 0.004204
Heightened Def Con from 0.00421066 ++++++++++++++++++++to 0.00421066
Heightened Def Con from 0.00421733 ++++++++++++++++++++to 0.00421733
Heightened Def Con from 0.004224 ++++++++++++++++++++to 0.004224
Heightened Def Con from 0.00423066 ++++++++++++++++++++to 0.00423066
Heightened Def Con from 0.00423733 ++++++++++++++++++++to 0.00423733
Heightened Def Con from 0.004244 ++++++++++++++++++++to 0.004244
Heightened Def Con from 0.00425066 ++++++++++++++++++++to 0.00425066
Heightened Def Con from 0.00425733 ++++++++++++++++++++to 0.00425733
Heightened Def Con from 0.004264 ++++++++++++++++++++to 0.004264
Heightened Def Con from 0.00427066 ++++++++++++++++++++to 0.00427066
Heightened Def Con from 0.00427733 ++++++++++++++++++++to 0.00427733
Heightened Def Con from 0.004284 ++++++++++++++++++++to 0.004284
Heightened Def Con from 0.00429066 ++++++++++++++++++++to 0.00429066
Heightened Def Con from 0.00429733 ++++++++++++++++++++to 0.00429733
Heightened Def Con from 0.004304 ++++++++++++++++++++to 0.004304
Heightened Def Con from 0.00431066 ++++++++++++++++++++to 0.00431066
Heightened Def Con from 0.00431733 ++++++++++++++++++++to 0.00431733
Heightened Def Con from 0.004324 ++++++++++++++++++++to 0.004324
Heightened Def Con from 0.00433066 ++++++++++++++++++++to 0.00433066
Heightened Def Con from 0.00433733 ++++++++++++++++++++to 0.00433733
Heightened Def Con from 0.004344 ++++++++++++++++++++to 0.004344
Heightened Def Con from 0.00435066 ++++++++++++++++++++to 0.00435066
Heightened Def Con from 0.00435733 ++++++++++++++++++++to 0.00435733
Heightened Def Con from 0.004364 ++++++++++++++++++++to 0.004364
Heightened Def Con from 0.00437066 ++++++++++++++++++++to 0.00437066
Heightened Def Con from 0.00437733 ++++++++++++++++++++to 0.00437733
Heightened Def Con from 0.004384 ++++++++++++++++++++to 0.004384
Heightened Def Con from 0.00439066 ++++++++++++++++++++to 0.00439066
Heightened Def Con from 0.00439733 ++++++++++++++++++++to 0.00439733
Heightened Def Con from 0.004404 ++++++++++++++++++++to 0.004404
Heightened Def Con from 0.00441066 ++++++++++++++++++++to 0.00441066
Heightened Def Con from 0.00441733 ++++++++++++++++++++to 0.00441733
Heightened Def Con from 0.004424 ++++++++++++++++++++to 0.004424
Heightened Def Con from 0.00443066 ++++++++++++++++++++to 0.00443066
Heightened Def Con from 0.00443733 ++++++++++++++++++++to 0.00443733
Heightened Def Con from 0.004444 ++++++++++++++++++++to 0.004444
Heightened Def Con from 0.00445066 ++++++++++++++++++++to 0.00445066
Heightened Def Con from 0.00445733 ++++++++++++++++++++to 0.00445733
Heightened Def Con from 0.004464 ++++++++++++++++++++to 0.004464
Heightened Def Con from 0.00447066 ++++++++++++++++++++to 0.00447066
Heightened Def Con from 0.00447733 ++++++++++++++++++++to 0.00447733
Heightened Def Con from 0.004484 ++++++++++++++++++++to 0.004484
Heightened Def Con from 0.00449066 ++++++++++++++++++++to 0.00449066
Heightened Def Con from 0.00449733 ++++++++++++++++++++to 0.00449733
Heightened Def Con from 0.004504 ++++++++++++++++++++to 0.004504
Heightened Def Con from 0.00451066 ++++++++++++++++++++to 0.00451066
Heightened Def Con from 0.00451733 ++++++++++++++++++++to 0.00451733
Heightened Def Con from 0.004524 ++++++++++++++++++++to 0.004524
Heightened Def Con from 0.00453066 ++++++++++++++++++++to 0.00453066
Heightened Def Con from 0.00453733 ++++++++++++++++++++to 0.00453733
Heightened Def Con from 0.004544 ++++++++++++++++++++to 0.004544
Heightened Def Con from 0.00455066 ++++++++++++++++++++to 0.00455066
Heightened Def Con from 0.00455733 ++++++++++++++++++++to 0.00455733
Heightened Def Con from 0.004564 ++++++++++++++++++++to 0.004564
Heightened Def Con from 0.00457066 ++++++++++++++++++++to 0.00457066
Heightened Def Con from 0.00457733 ++++++++++++++++++++to 0.00457733
Heightened Def Con from 0.004584 ++++++++++++++++++++to 0.004584
Heightened Def Con from 0.00459066 ++++++++++++++++++++to 0.00459066
Heightened Def Con from 0.00459733 ++++++++++++++++++++to 0.00459733
Heightened Def Con from 0.004604 ++++++++++++++++++++to 0.004604
Heightened Def Con from 0.00461066 ++++++++++++++++++++to 0.00461066
Heightened Def Con from 0.00461733 ++++++++++++++++++++to 0.00461733
Heightened Def Con from 0.004624 ++++++++++++++++++++to 0.004624
Heightened Def Con from 0.00463066 ++++++++++++++++++++to 0.00463066
Heightened Def Con from 0.00463733 ++++++++++++++++++++to 0.00463733
Heightened Def Con from 0.004644 ++++++++++++++++++++to 0.004644
Heightened Def Con from 0.00465066 ++++++++++++++++++++to 0.00465066
Heightened Def Con from 0.00465733 ++++++++++++++++++++to 0.00465733
Heightened Def Con from 0.004664 ++++++++++++++++++++to 0.004664
Heightened Def Con from 0.00467066 ++++++++++++++++++++to 0.00467066
Heightened Def Con from 0.00467733 ++++++++++++++++++++to 0.00467733
Heightened Def Con from 0.004684 ++++++++++++++++++++to 0.004684
Heightened Def Con from 0.00469066 ++++++++++++++++++++to 0.00469066
Heightened Def Con from 0.00469733 ++++++++++++++++++++to 0.00469733
Heightened Def Con from 0.004704 ++++++++++++++++++++to 0.004704
Heightened Def Con from 0.00471066 ++++++++++++++++++++to 0.00471066
Heightened Def Con from 0.00471733 ++++++++++++++++++++to 0.00471733
Heightened Def Con from 0.004724 ++++++++++++++++++++to 0.004724
Heightened Def Con from 0.00473066 ++++++++++++++++++++to 0.00473066
Heightened Def Con from 0.00473733 ++++++++++++++++++++to 0.00473733
Heightened Def Con from 0.004744 ++++++++++++++++++++to 0.004744
Heightened Def Con from 0.00475066 ++++++++++++++++++++to 0.00475066
Heightened Def Con from 0.00475733 ++++++++++++++++++++to 0.00475733
Heightened Def Con from 0.004764 ++++++++++++++++++++to 0.004764
Heightened Def Con from 0.00477066 ++++++++++++++++++++to 0.00477066
Heightened Def Con from 0.00477733 ++++++++++++++++++++to 0.00477733
Heightened Def Con from 0.004784 ++++++++++++++++++++to 0.004784
Heightened Def Con from 0.00479066 ++++++++++++++++++++to 0.00479066
Heightened Def Con from 0.00479733 ++++++++++++++++++++to 0.00479733
Heightened Def Con from 0.004804 ++++++++++++++++++++to 0.004804
Heightened Def Con from 0.00481066 ++++++++++++++++++++to 0.00481066
Heightened Def Con from 0.00481733 ++++++++++++++++++++to 0.00481733
Heightened Def Con from 0.004824 ++++++++++++++++++++to 0.004824
Heightened Def Con from 0.00483066 ++++++++++++++++++++to 0.00483066
Heightened Def Con from 0.00483733 ++++++++++++++++++++to 0.00483733
Heightened Def Con from 0.004844 ++++++++++++++++++++to 0.004844
Heightened Def Con from 0.00485066 ++++++++++++++++++++to 0.00485066
Heightened Def Con from 0.00485733 ++++++++++++++++++++to 0.00485733
Heightened Def Con from 0.004864 ++++++++++++++++++++to 0.004864
Heightened Def Con from 0.00487066 ++++++++++++++++++++to 0.00487066
Heightened Def Con from 0.00487733 ++++++++++++++++++++to 0.00487733
Heightened Def Con from 0.004884 ++++++++++++++++++++to 0.004884
Heightened Def Con from 0.00489066 ++++++++++++++++++++to 0.00489066
Heightened Def Con from 0.00489733 ++++++++++++++++++++to 0.00489733
Heightened Def Con from 0.004904 ++++++++++++++++++++to 0.004904
Heightened Def Con from 0.00491066 ++++++++++++++++++++to 0.00491066
Heightened Def Con from 0.00491733 ++++++++++++++++++++to 0.00491733
Heightened Def Con from 0.004924 ++++++++++++++++++++to 0.004924
Heightened Def Con from 0.00493066 ++++++++++++++++++++to 0.00493066
Heightened Def Con from 0.00493733 ++++++++++++++++++++to 0.00493733
Heightened Def Con from 0.004944 ++++++++++++++++++++to 0.004944
Heightened Def Con from 0.00495066 ++++++++++++++++++++to 0.00495066
Heightened Def Con from 0.00495733 ++++++++++++++++++++to 0.00495733
Heightened Def Con from 0.004964 ++++++++++++++++++++to 0.004964
Heightened Def Con from 0.00497066 ++++++++++++++++++++to 0.00497066
Heightened Def Con from 0.00497733 ++++++++++++++++++++to 0.00497733
Heightened Def Con from 0.004984 ++++++++++++++++++++to 0.004984
Heightened Def Con from 0.00499066 ++++++++++++++++++++to 0.00499066
Heightened Def Con from 0.00499733 ++++++++++++++++++++to 0.00499733

Date: Thu Nov 28 18:00:06 2024
Total elapsed time: 1.401 seconds.

tnom = 27
temp = 27
method = modified trap
totiter = 1118969
traniter = 1118964
tranpoints = 150592
accept = 78288
rejected = 88054
matrix size = 6
fillins = 0
solver = Normal
Avg thread counts: 1.0/1.0/1.0/1.0
Matrix Compiler1: 164 bytes object code size  0.2/0.2/[0.1]
Matrix Compiler2: off  [0.1]/0.2/0.1

